
This summary file was generated by TurbSim (v1.06.00, 21-Sep-2012) on 25-Jul-2018 at 23:19:16.


Runtime Options:

     13428  Random seed #1
    RANLUX  Type of random number generator
         F  Output binary HH turbulence parameters?
         F  Output formatted turbulence parameters?
         F  Output AeroDyn HH files?
         T  Output AeroDyn FF files?
         F  Output BLADED FF files?
         T  Output tower data?
         F  Output formatted FF files?
         F  Output coherent turbulence time step file?
         T  Clockwise rotation when looking downwind?
 0 -  NONE  IEC turbulence models scaled to exact specified standard deviation


Turbine/Model Specifications:

        31  Vertical grid-point matrix dimension
        31  Horizontal grid-point matrix dimension
     0.050  Time step [seconds]
   630.000  Analysis time [seconds]
   630.000  Usable output time [seconds]
    90.000  Hub height [m]
   145.000  Grid height [m]
   145.000  Grid width [m]
     0.000  Vertical flow angle [degrees]
     0.000  Horizontal flow angle [degrees]


Meteorological Boundary Conditions:

    IECVKM  IEC von Karman spectral model
         1  IEC standard: IEC 61400-1 Ed. 3: 2005
         C  IEC turbulence characteristic
       NTM  IEC Normal Turbulence Model
       N/A  IEC Extreme Turbulence Model (ETM) "c" parameter [m/s]
       PL   Wind profile type
    90.000  Reference height [m]
    14.000  Reference wind speed [m/s]
       N/A  Jet height [m]
     0.200  Power law exponent
     0.030  Surface roughness length [m]


You have requested that the following file(s) be generated:

   teste01.bts (AeroDyn/TurbSim full-field wind file)


Turbulence Simulation Scaling Parameter Summary:

   Turbulence model used                            =  IEC von Karman
   Turbulence characteristic                        =  C
   IEC turbulence type                              =  Normal Turbulence Model
   IEC standard                                     =  IEC 61400-1 Ed. 3: 2005
   Mean wind speed at hub height                    =   14.000 m/s
   Expected value of turbulence intensity at 15 m/s =   12.000%
   Characteristic value of standard deviation       =    1.932 m/s
   Turbulence scale                                 =   42.000 m
   Isotropic integral scale                         =  340.200 m
   Characteristic value of hub turbulence intensity =   13.800%
   Gradient Richardson number                       =    0.000

   Wind profile type                                =  Power law
   Power law exponent                               =    0.200
   Mean shear across rotor disk                     =    0.039 (m/s)/m
   Assumed rotor diameter                           =  145.000 m
   Surface roughness length                         =    0.030 m

   Number of time steps in the FFT                  =    12844
   Number of time steps output                      =    12808


Mean Flow Angles:

   Vertical   =   0.0 degrees
   Horizontal =   0.0 degrees

Mean Wind Speed Profile:

   Height    Wind Speed   Horizontal Angle  U-comp (X)   V-comp (Y)   W-comp (Z)
     (m)        (m/s)         (degrees)       (m/s)        (m/s)        (m/s)   
   ------    ----------   ----------------  ----------   ----------   ----------
    162.5       15.76            0.00         15.76         0.00         0.00
    157.7       15.66            0.00         15.66         0.00         0.00
    152.8       15.56            0.00         15.56         0.00         0.00
    148.0       15.46            0.00         15.46         0.00         0.00
    143.2       15.36            0.00         15.36         0.00         0.00
    138.3       15.26            0.00         15.26         0.00         0.00
    133.5       15.15            0.00         15.15         0.00         0.00
    128.7       15.04            0.00         15.04         0.00         0.00
    123.8       14.92            0.00         14.92         0.00         0.00
    119.0       14.80            0.00         14.80         0.00         0.00
    114.2       14.68            0.00         14.68         0.00         0.00
    109.3       14.56            0.00         14.56         0.00         0.00
    104.5       14.42            0.00         14.42         0.00         0.00
     99.7       14.29            0.00         14.29         0.00         0.00
     94.8       14.15            0.00         14.15         0.00         0.00
     90.0       14.00            0.00         14.00         0.00         0.00
     85.2       13.85            0.00         13.85         0.00         0.00
     80.3       13.69            0.00         13.69         0.00         0.00
     75.5       13.52            0.00         13.52         0.00         0.00
     70.7       13.34            0.00         13.34         0.00         0.00
     65.8       13.15            0.00         13.15         0.00         0.00
     61.0       12.95            0.00         12.95         0.00         0.00
     56.2       12.74            0.00         12.74         0.00         0.00
     51.3       12.51            0.00         12.51         0.00         0.00
     46.5       12.27            0.00         12.27         0.00         0.00
     41.7       12.00            0.00         12.00         0.00         0.00
     36.8       11.71            0.00         11.71         0.00         0.00
     32.0       11.38            0.00         11.38         0.00         0.00
     27.2       11.02            0.00         11.02         0.00         0.00
     22.3       10.59            0.00         10.59         0.00         0.00
     17.5       10.09            0.00         10.09         0.00         0.00
     12.7        9.46            0.00          9.46         0.00         0.00
      7.8        8.59            0.00          8.59         0.00         0.00
      3.0        7.09            0.00          7.09         0.00         0.00


Harvested Random Seeds after Generation of the Random Numbers:

    172568773 K1
            0 K2


Hub-Height Simulated Turbulence Statistical Summary:

   Type of Wind        Min (m/s)   Mean (m/s)    Max (m/s)  Sigma (m/s)       TI (%)
   ----------------    ---------   ----------    ---------  -----------       ------
   Longitudinal (u)         7.91        14.00        19.06        1.736       12.400
   Lateral (v)             -6.91         0.00         7.48        1.905       13.609
   Vertical (w)            -6.77         0.00         8.35        1.905       13.609
   U component              7.91        14.00        19.06        1.736       12.400
   V component             -6.91         0.00         7.48        1.905       13.609
   W component             -6.77         0.00         8.35        1.905       13.609
   Horizontal (U&V)         8.18        14.13        19.47        1.721       12.182
   Total                    8.28        14.26        19.49        1.724       12.094

                       Min Reynolds     Mean Reynolds    Max Reynolds    Correlation
   Product             Stress (m/s)^2   Stress (m/s)^2   Stress (m/s)^2  Coefficient
   ----------------    --------------   --------------   --------------  -----------
   u'w'                    -24.153             0.137            22.695         0.041
   u'v'                    -20.243             0.205            21.551         0.062
   v'w'                    -33.121            -0.189            25.509        -0.052


   Friction Velocity (Ustar)  =      0.370 m/s
   Maximum Instantaneous TKE  =     39.640 (m/s)^2
   Maximum Instantaneous CTKE =     16.560 (m/s)^2


Grid Point Variance Summary:

   Y-coord  -72.50  -67.67  -62.83  -58.00  -53.17  -48.33  -43.50  -38.67  -33.83  -29.00  -24.17  -19.33  -14.50   -9.67   -4.83    0.00    4.83    9.67   14.50   19.33   24.17   29.00   33.83   38.67   43.50   48.33   53.17   58.00   62.83   67.67   72.50

   Height   Standard deviation at grid points for the u component:
   162.50    2.019   2.052   1.974   1.851   1.866   1.866   1.863   1.796   1.782   1.736   1.745   1.702   1.805   1.845   1.810   1.798   1.751   1.776   1.770   1.853   1.849   1.749   1.841   1.735   1.786   1.876   1.932   1.954   2.014   1.973   2.008
   157.67    1.998   1.954   1.883   1.835   1.776   1.803   1.830   1.789   1.867   1.821   1.807   1.790   1.759   1.806   1.785   1.777   1.650   1.702   1.752   1.789   1.877   1.795   1.853   1.852   1.820   1.894   1.967   2.043   1.982   1.997   1.967
   152.83    1.936   1.879   1.919   1.817   1.827   1.798   1.841   1.808   1.920   1.870   1.858   1.822   1.778   1.897   1.755   1.678   1.740   1.731   1.836   1.866   1.859   1.862   1.825   1.911   1.921   1.897   1.962   1.954   2.028   1.975   1.935
   148.00    1.945   1.906   1.915   1.815   1.819   1.806   1.885   1.862   1.950   1.938   1.897   1.838   1.826   1.760   1.794   1.762   1.748   1.747   1.746   1.805   1.858   1.812   1.808   1.876   1.893   1.936   2.008   1.931   1.937   1.903   1.903
   143.17    1.929   1.865   1.872   1.818   1.839   1.808   1.818   1.886   1.918   1.931   1.970   1.865   1.758   1.811   1.812   1.692   1.701   1.687   1.753   1.741   1.808   1.841   1.842   1.880   1.775   1.858   1.876   1.962   1.973   1.927   1.915
   138.33    1.942   1.877   1.765   1.843   1.920   1.925   1.998   1.919   1.896   1.812   1.904   1.891   1.813   1.857   1.831   1.806   1.690   1.710   1.730   1.739   1.779   1.825   1.833   1.836   1.767   1.823   1.892   1.909   1.929   1.920   1.957
   133.50    1.911   1.815   1.877   1.865   1.982   1.948   1.958   1.944   1.877   1.887   1.855   1.835   1.808   1.846   1.762   1.783   1.753   1.786   1.788   1.772   1.795   1.801   1.782   1.793   1.806   1.795   1.824   1.891   1.833   1.819   1.996
   128.67    1.851   1.864   1.887   1.945   2.012   1.981   1.932   1.939   1.861   1.836   1.833   1.784   1.861   1.733   1.723   1.766   1.835   1.832   1.713   1.782   1.814   1.833   1.790   1.831   1.762   1.794   1.856   1.807   1.871   1.897   1.936
   123.83    1.755   1.847   1.945   1.893   1.941   1.955   1.888   1.842   1.870   1.935   1.861   1.845   1.844   1.769   1.761   1.735   1.747   1.750   1.689   1.801   1.822   1.860   1.919   1.806   1.779   1.843   1.934   1.854   1.927   1.951   1.959
   119.00    1.834   1.899   1.892   1.874   1.916   1.875   1.804   1.818   1.862   1.919   1.828   1.823   1.759   1.772   1.760   1.695   1.733   1.716   1.707   1.727   1.813   1.775   1.773   1.715   1.729   1.813   1.831   1.885   1.945   1.887   1.934
   114.17    1.916   1.863   1.867   1.843   1.849   1.874   1.857   1.898   1.863   1.845   1.810   1.827   1.768   1.874   1.846   1.684   1.701   1.755   1.662   1.718   1.706   1.735   1.705   1.642   1.748   1.747   1.837   1.887   1.849   1.893   1.939
   109.33    1.981   1.864   1.729   1.746   1.776   1.855   1.807   1.819   1.842   1.829   1.882   1.799   1.855   1.833   1.834   1.771   1.729   1.712   1.712   1.672   1.605   1.676   1.689   1.751   1.768   1.790   1.826   1.809   1.818   1.849   1.923
   104.50    1.890   1.817   1.753   1.787   1.760   1.757   1.882   1.867   1.895   1.907   1.849   1.773   1.728   1.792   1.810   1.764   1.702   1.787   1.770   1.766   1.634   1.708   1.678   1.767   1.778   1.781   1.839   1.834   1.735   1.777   1.884
    99.67    1.884   1.911   1.782   1.770   1.816   1.827   1.947   1.884   1.819   1.847   1.796   1.737   1.741   1.808   1.821   1.734   1.700   1.699   1.767   1.751   1.716   1.677   1.684   1.726   1.764   1.729   1.800   1.695   1.780   1.838   1.909
    94.83    1.850   1.842   1.856   1.830   1.867   1.991   1.980   1.913   1.884   1.738   1.759   1.637   1.620   1.708   1.746   1.740   1.765   1.695   1.790   1.781   1.733   1.697   1.662   1.687   1.803   1.755   1.766   1.753   1.765   1.772   1.821
    90.00    1.894   1.892   1.906   1.826   1.856   1.964   2.007   2.036   1.893   1.776   1.685   1.624   1.613   1.704   1.726   1.736   1.765   1.770   1.786   1.796   1.792   1.737   1.707   1.791   1.741   1.859   1.789   1.823   1.759   1.822   1.870
    85.17    1.874   1.850   1.887   1.899   1.832   1.916   1.969   1.977   1.885   1.873   1.743   1.726   1.636   1.719   1.706   1.720   1.734   1.830   1.799   1.816   1.779   1.730   1.718   1.777   1.783   1.905   1.880   1.833   1.819   1.742   1.798
    80.33    1.863   1.882   1.797   1.832   1.840   1.933   2.007   1.945   1.947   1.815   1.743   1.745   1.725   1.658   1.667   1.597   1.640   1.700   1.744   1.709   1.739   1.731   1.783   1.818   1.850   1.858   1.898   1.807   1.761   1.742   1.771
    75.50    1.864   1.922   1.910   1.864   1.813   1.906   1.963   1.835   1.832   1.803   1.779   1.825   1.717   1.627   1.581   1.542   1.582   1.704   1.774   1.744   1.751   1.791   1.879   1.879   1.876   1.906   1.816   1.789   1.743   1.720   1.801
    70.67    1.919   1.852   1.891   1.835   1.850   1.824   1.882   1.768   1.730   1.752   1.776   1.792   1.721   1.730   1.719   1.669   1.602   1.632   1.790   1.810   1.785   1.779   1.842   1.877   1.843   1.826   1.825   1.793   1.801   1.783   1.823
    65.83    1.897   1.828   1.763   1.792   1.762   1.770   1.793   1.808   1.724   1.773   1.808   1.833   1.847   1.867   1.879   1.739   1.685   1.815   1.799   1.832   1.821   1.735   1.729   1.818   1.773   1.770   1.786   1.742   1.772   1.820   1.847
    61.00    1.800   1.770   1.787   1.793   1.731   1.740   1.704   1.789   1.765   1.778   1.812   1.850   1.901   1.842   1.815   1.814   1.791   1.803   1.780   1.832   1.830   1.798   1.762   1.734   1.750   1.780   1.694   1.694   1.707   1.850   1.938
    56.17    1.781   1.743   1.752   1.748   1.749   1.730   1.775   1.818   1.833   1.776   1.781   1.831   1.863   1.927   1.926   1.861   1.748   1.739   1.727   1.756   1.719   1.720   1.844   1.805   1.773   1.816   1.698   1.685   1.764   1.831   1.905
    51.33    1.783   1.851   1.804   1.777   1.797   1.685   1.745   1.842   1.822   1.788   1.828   1.746   1.758   1.874   1.855   1.841   1.777   1.792   1.756   1.733   1.741   1.832   1.768   1.747   1.849   1.784   1.758   1.747   1.832   1.881   1.833
    46.50    1.817   1.819   1.752   1.799   1.703   1.724   1.749   1.794   1.830   1.873   1.799   1.742   1.676   1.760   1.824   1.833   1.823   1.829   1.748   1.753   1.749   1.808   1.780   1.830   1.820   1.747   1.803   1.790   1.865   1.813   1.853
    41.67    1.791   1.781   1.806   1.791   1.651   1.752   1.754   1.743   1.758   1.792   1.769   1.683   1.692   1.760   1.846   1.915   1.884   1.879   1.842   1.752   1.814   1.819   1.846   1.796   1.777   1.817   1.779   1.730   1.925   1.942   1.944
    36.83    1.839   1.854   1.786   1.748   1.721   1.719   1.713   1.770   1.773   1.696   1.706   1.766   1.673   1.640   1.808   1.902   1.909   1.924   1.919   1.885   1.845   1.850   1.796   1.787   1.787   1.672   1.744   1.784   1.829   1.841   1.938
    32.00    1.894   1.911   1.891   1.885   1.794   1.781   1.718   1.683   1.659   1.700   1.714   1.726   1.699   1.778   1.754   1.943   1.947   1.868   1.864   1.942   1.881   1.844   1.879   1.756   1.708   1.672   1.721   1.797   1.822   1.856   1.947
    27.17    1.775   1.845   1.849   1.745   1.721   1.752   1.620   1.682   1.771   1.666   1.703   1.634   1.671   1.763   1.750   1.837   1.926   1.944   1.938   1.911   1.924   1.840   1.881   1.824   1.705   1.676   1.761   1.804   1.821   1.865   1.910
    22.33    1.831   1.863   1.829   1.834   1.841   1.746   1.724   1.724   1.721   1.721   1.716   1.691   1.694   1.735   1.787   1.855   1.885   1.981   2.009   1.909   1.957   1.869   1.922   1.867   1.732   1.710   1.724   1.786   1.824   1.906   1.896
    17.50    1.903   1.905   1.858   1.819   1.872   1.815   1.743   1.730   1.714   1.722   1.632   1.628   1.650   1.659   1.777   1.812   1.804   1.872   1.989   1.974   1.991   1.971   1.876   1.798   1.733   1.757   1.742   1.790   1.842   1.827   1.822

   Height   Standard deviation at grid points for the v component:
   162.50    1.905   1.905   1.905   1.905   1.905   1.905   1.905   1.905   1.905   1.905   1.905   1.905   1.905   1.905   1.905   1.905   1.905   1.905   1.905   1.905   1.905   1.905   1.905   1.905   1.905   1.905   1.905   1.905   1.905   1.905   1.905
   157.67    1.905   1.905   1.905   1.905   1.905   1.905   1.905   1.905   1.905   1.905   1.905   1.905   1.905   1.905   1.905   1.905   1.905   1.905   1.905   1.905   1.905   1.905   1.905   1.905   1.905   1.905   1.905   1.905   1.905   1.905   1.905
   152.83    1.905   1.905   1.905   1.905   1.905   1.905   1.905   1.905   1.905   1.905   1.905   1.905   1.905   1.905   1.905   1.905   1.905   1.905   1.905   1.905   1.905   1.905   1.905   1.905   1.905   1.905   1.905   1.905   1.905   1.905   1.905
   148.00    1.905   1.905   1.905   1.905   1.905   1.905   1.905   1.905   1.905   1.905   1.905   1.905   1.905   1.905   1.905   1.905   1.905   1.905   1.905   1.905   1.905   1.905   1.905   1.905   1.905   1.905   1.905   1.905   1.905   1.905   1.905
   143.17    1.905   1.905   1.905   1.905   1.905   1.905   1.905   1.905   1.905   1.905   1.905   1.905   1.905   1.905   1.905   1.905   1.905   1.905   1.905   1.905   1.905   1.905   1.905   1.905   1.905   1.905   1.905   1.905   1.905   1.905   1.905
   138.33    1.905   1.905   1.905   1.905   1.905   1.905   1.905   1.905   1.905   1.905   1.905   1.905   1.905   1.905   1.905   1.905   1.905   1.905   1.905   1.905   1.905   1.905   1.905   1.905   1.905   1.905   1.905   1.905   1.905   1.905   1.905
   133.50    1.905   1.905   1.905   1.905   1.905   1.905   1.905   1.905   1.905   1.905   1.905   1.905   1.905   1.905   1.905   1.905   1.905   1.905   1.905   1.905   1.905   1.905   1.905   1.905   1.905   1.905   1.905   1.905   1.905   1.905   1.905
   128.67    1.905   1.905   1.905   1.905   1.905   1.905   1.905   1.905   1.905   1.905   1.905   1.905   1.905   1.905   1.905   1.905   1.905   1.905   1.905   1.905   1.905   1.905   1.905   1.905   1.905   1.905   1.905   1.905   1.905   1.905   1.905
   123.83    1.905   1.905   1.905   1.905   1.905   1.905   1.905   1.905   1.905   1.905   1.905   1.905   1.905   1.905   1.905   1.905   1.905   1.905   1.905   1.905   1.905   1.905   1.905   1.905   1.905   1.905   1.905   1.905   1.905   1.905   1.905
   119.00    1.905   1.905   1.905   1.905   1.905   1.905   1.905   1.905   1.905   1.905   1.905   1.905   1.905   1.905   1.905   1.905   1.905   1.905   1.905   1.905   1.905   1.905   1.905   1.905   1.905   1.905   1.905   1.905   1.905   1.905   1.905
   114.17    1.905   1.905   1.905   1.905   1.905   1.905   1.905   1.905   1.905   1.905   1.905   1.905   1.905   1.905   1.905   1.905   1.905   1.905   1.905   1.905   1.905   1.905   1.905   1.905   1.905   1.905   1.905   1.905   1.905   1.905   1.905
   109.33    1.905   1.905   1.905   1.905   1.905   1.905   1.905   1.905   1.905   1.905   1.905   1.905   1.905   1.905   1.905   1.905   1.905   1.905   1.905   1.905   1.905   1.905   1.905   1.905   1.905   1.905   1.905   1.905   1.905   1.905   1.905
   104.50    1.905   1.905   1.905   1.905   1.905   1.905   1.905   1.905   1.905   1.905   1.905   1.905   1.905   1.905   1.905   1.905   1.905   1.905   1.905   1.905   1.905   1.905   1.905   1.905   1.905   1.905   1.905   1.905   1.905   1.905   1.905
    99.67    1.905   1.905   1.905   1.905   1.905   1.905   1.905   1.905   1.905   1.905   1.905   1.905   1.905   1.905   1.905   1.905   1.905   1.905   1.905   1.905   1.905   1.905   1.905   1.905   1.905   1.905   1.905   1.905   1.905   1.905   1.905
    94.83    1.905   1.905   1.905   1.905   1.905   1.905   1.905   1.905   1.905   1.905   1.905   1.905   1.905   1.905   1.905   1.905   1.905   1.905   1.905   1.905   1.905   1.905   1.905   1.905   1.905   1.905   1.905   1.905   1.905   1.905   1.905
    90.00    1.905   1.905   1.905   1.905   1.905   1.905   1.905   1.905   1.905   1.905   1.905   1.905   1.905   1.905   1.905   1.905   1.905   1.905   1.905   1.905   1.905   1.905   1.905   1.905   1.905   1.905   1.905   1.905   1.905   1.905   1.905
    85.17    1.905   1.905   1.905   1.905   1.905   1.905   1.905   1.905   1.905   1.905   1.905   1.905   1.905   1.905   1.905   1.905   1.905   1.905   1.905   1.905   1.905   1.905   1.905   1.905   1.905   1.905   1.905   1.905   1.905   1.905   1.905
    80.33    1.905   1.905   1.905   1.905   1.905   1.905   1.905   1.905   1.905   1.905   1.905   1.905   1.905   1.905   1.905   1.905   1.905   1.905   1.905   1.905   1.905   1.905   1.905   1.905   1.905   1.905   1.905   1.905   1.905   1.905   1.905
    75.50    1.905   1.905   1.905   1.905   1.905   1.905   1.905   1.905   1.905   1.905   1.905   1.905   1.905   1.905   1.905   1.905   1.905   1.905   1.905   1.905   1.905   1.905   1.905   1.905   1.905   1.905   1.905   1.905   1.905   1.905   1.905
    70.67    1.905   1.905   1.905   1.905   1.905   1.905   1.905   1.905   1.905   1.905   1.905   1.905   1.905   1.905   1.905   1.905   1.905   1.905   1.905   1.905   1.905   1.905   1.905   1.905   1.905   1.905   1.905   1.905   1.905   1.905   1.905
    65.83    1.905   1.905   1.905   1.905   1.905   1.905   1.905   1.905   1.905   1.905   1.905   1.905   1.905   1.905   1.905   1.905   1.905   1.905   1.905   1.905   1.905   1.905   1.905   1.905   1.905   1.905   1.905   1.905   1.905   1.905   1.905
    61.00    1.905   1.905   1.905   1.905   1.905   1.905   1.905   1.905   1.905   1.905   1.905   1.905   1.905   1.905   1.905   1.905   1.905   1.905   1.905   1.905   1.905   1.905   1.905   1.905   1.905   1.905   1.905   1.905   1.905   1.905   1.905
    56.17    1.905   1.905   1.905   1.905   1.905   1.905   1.905   1.905   1.905   1.905   1.905   1.905   1.905   1.905   1.905   1.905   1.905   1.905   1.905   1.905   1.905   1.905   1.905   1.905   1.905   1.905   1.905   1.905   1.905   1.905   1.905
    51.33    1.905   1.905   1.905   1.905   1.905   1.905   1.905   1.905   1.905   1.905   1.905   1.905   1.905   1.905   1.905   1.905   1.905   1.905   1.905   1.905   1.905   1.905   1.905   1.905   1.905   1.905   1.905   1.905   1.905   1.905   1.905
    46.50    1.905   1.905   1.905   1.905   1.905   1.905   1.905   1.905   1.905   1.905   1.905   1.905   1.905   1.905   1.905   1.905   1.905   1.905   1.905   1.905   1.905   1.905   1.905   1.905   1.905   1.905   1.905   1.905   1.905   1.905   1.905
    41.67    1.905   1.905   1.905   1.905   1.905   1.905   1.905   1.905   1.905   1.905   1.905   1.905   1.905   1.905   1.905   1.905   1.905   1.905   1.905   1.905   1.905   1.905   1.905   1.905   1.905   1.905   1.905   1.905   1.905   1.905   1.905
    36.83    1.905   1.905   1.905   1.905   1.905   1.905   1.905   1.905   1.905   1.905   1.905   1.905   1.905   1.905   1.905   1.905   1.905   1.905   1.905   1.905   1.905   1.905   1.905   1.905   1.905   1.905   1.905   1.905   1.905   1.905   1.905
    32.00    1.905   1.905   1.905   1.905   1.905   1.905   1.905   1.905   1.905   1.905   1.905   1.905   1.905   1.905   1.905   1.905   1.905   1.905   1.905   1.905   1.905   1.905   1.905   1.905   1.905   1.905   1.905   1.905   1.905   1.905   1.905
    27.17    1.905   1.905   1.905   1.905   1.905   1.905   1.905   1.905   1.905   1.905   1.905   1.905   1.905   1.905   1.905   1.905   1.905   1.905   1.905   1.905   1.905   1.905   1.905   1.905   1.905   1.905   1.905   1.905   1.905   1.905   1.905
    22.33    1.905   1.905   1.905   1.905   1.905   1.905   1.905   1.905   1.905   1.905   1.905   1.905   1.905   1.905   1.905   1.905   1.905   1.905   1.905   1.905   1.905   1.905   1.905   1.905   1.905   1.905   1.905   1.905   1.905   1.905   1.905
    17.50    1.905   1.905   1.905   1.905   1.905   1.905   1.905   1.905   1.905   1.905   1.905   1.905   1.905   1.905   1.905   1.905   1.905   1.905   1.905   1.905   1.905   1.905   1.905   1.905   1.905   1.905   1.905   1.905   1.905   1.905   1.905

   Height   Standard deviation at grid points for the w component:
   162.50    1.905   1.905   1.905   1.905   1.905   1.905   1.905   1.905   1.905   1.905   1.905   1.905   1.905   1.905   1.905   1.905   1.905   1.905   1.905   1.905   1.905   1.905   1.905   1.905   1.905   1.905   1.905   1.905   1.905   1.905   1.905
   157.67    1.905   1.905   1.905   1.905   1.905   1.905   1.905   1.905   1.905   1.905   1.905   1.905   1.905   1.905   1.905   1.905   1.905   1.905   1.905   1.905   1.905   1.905   1.905   1.905   1.905   1.905   1.905   1.905   1.905   1.905   1.905
   152.83    1.905   1.905   1.905   1.905   1.905   1.905   1.905   1.905   1.905   1.905   1.905   1.905   1.905   1.905   1.905   1.905   1.905   1.905   1.905   1.905   1.905   1.905   1.905   1.905   1.905   1.905   1.905   1.905   1.905   1.905   1.905
   148.00    1.905   1.905   1.905   1.905   1.905   1.905   1.905   1.905   1.905   1.905   1.905   1.905   1.905   1.905   1.905   1.905   1.905   1.905   1.905   1.905   1.905   1.905   1.905   1.905   1.905   1.905   1.905   1.905   1.905   1.905   1.905
   143.17    1.905   1.905   1.905   1.905   1.905   1.905   1.905   1.905   1.905   1.905   1.905   1.905   1.905   1.905   1.905   1.905   1.905   1.905   1.905   1.905   1.905   1.905   1.905   1.905   1.905   1.905   1.905   1.905   1.905   1.905   1.905
   138.33    1.905   1.905   1.905   1.905   1.905   1.905   1.905   1.905   1.905   1.905   1.905   1.905   1.905   1.905   1.905   1.905   1.905   1.905   1.905   1.905   1.905   1.905   1.905   1.905   1.905   1.905   1.905   1.905   1.905   1.905   1.905
   133.50    1.905   1.905   1.905   1.905   1.905   1.905   1.905   1.905   1.905   1.905   1.905   1.905   1.905   1.905   1.905   1.905   1.905   1.905   1.905   1.905   1.905   1.905   1.905   1.905   1.905   1.905   1.905   1.905   1.905   1.905   1.905
   128.67    1.905   1.905   1.905   1.905   1.905   1.905   1.905   1.905   1.905   1.905   1.905   1.905   1.905   1.905   1.905   1.905   1.905   1.905   1.905   1.905   1.905   1.905   1.905   1.905   1.905   1.905   1.905   1.905   1.905   1.905   1.905
   123.83    1.905   1.905   1.905   1.905   1.905   1.905   1.905   1.905   1.905   1.905   1.905   1.905   1.905   1.905   1.905   1.905   1.905   1.905   1.905   1.905   1.905   1.905   1.905   1.905   1.905   1.905   1.905   1.905   1.905   1.905   1.905
   119.00    1.905   1.905   1.905   1.905   1.905   1.905   1.905   1.905   1.905   1.905   1.905   1.905   1.905   1.905   1.905   1.905   1.905   1.905   1.905   1.905   1.905   1.905   1.905   1.905   1.905   1.905   1.905   1.905   1.905   1.905   1.905
   114.17    1.905   1.905   1.905   1.905   1.905   1.905   1.905   1.905   1.905   1.905   1.905   1.905   1.905   1.905   1.905   1.905   1.905   1.905   1.905   1.905   1.905   1.905   1.905   1.905   1.905   1.905   1.905   1.905   1.905   1.905   1.905
   109.33    1.905   1.905   1.905   1.905   1.905   1.905   1.905   1.905   1.905   1.905   1.905   1.905   1.905   1.905   1.905   1.905   1.905   1.905   1.905   1.905   1.905   1.905   1.905   1.905   1.905   1.905   1.905   1.905   1.905   1.905   1.905
   104.50    1.905   1.905   1.905   1.905   1.905   1.905   1.905   1.905   1.905   1.905   1.905   1.905   1.905   1.905   1.905   1.905   1.905   1.905   1.905   1.905   1.905   1.905   1.905   1.905   1.905   1.905   1.905   1.905   1.905   1.905   1.905
    99.67    1.905   1.905   1.905   1.905   1.905   1.905   1.905   1.905   1.905   1.905   1.905   1.905   1.905   1.905   1.905   1.905   1.905   1.905   1.905   1.905   1.905   1.905   1.905   1.905   1.905   1.905   1.905   1.905   1.905   1.905   1.905
    94.83    1.905   1.905   1.905   1.905   1.905   1.905   1.905   1.905   1.905   1.905   1.905   1.905   1.905   1.905   1.905   1.905   1.905   1.905   1.905   1.905   1.905   1.905   1.905   1.905   1.905   1.905   1.905   1.905   1.905   1.905   1.905
    90.00    1.905   1.905   1.905   1.905   1.905   1.905   1.905   1.905   1.905   1.905   1.905   1.905   1.905   1.905   1.905   1.905   1.905   1.905   1.905   1.905   1.905   1.905   1.905   1.905   1.905   1.905   1.905   1.905   1.905   1.905   1.905
    85.17    1.905   1.905   1.905   1.905   1.905   1.905   1.905   1.905   1.905   1.905   1.905   1.905   1.905   1.905   1.905   1.905   1.905   1.905   1.905   1.905   1.905   1.905   1.905   1.905   1.905   1.905   1.905   1.905   1.905   1.905   1.905
    80.33    1.905   1.905   1.905   1.905   1.905   1.905   1.905   1.905   1.905   1.905   1.905   1.905   1.905   1.905   1.905   1.905   1.905   1.905   1.905   1.905   1.905   1.905   1.905   1.905   1.905   1.905   1.905   1.905   1.905   1.905   1.905
    75.50    1.905   1.905   1.905   1.905   1.905   1.905   1.905   1.905   1.905   1.905   1.905   1.905   1.905   1.905   1.905   1.905   1.905   1.905   1.905   1.905   1.905   1.905   1.905   1.905   1.905   1.905   1.905   1.905   1.905   1.905   1.905
    70.67    1.905   1.905   1.905   1.905   1.905   1.905   1.905   1.905   1.905   1.905   1.905   1.905   1.905   1.905   1.905   1.905   1.905   1.905   1.905   1.905   1.905   1.905   1.905   1.905   1.905   1.905   1.905   1.905   1.905   1.905   1.905
    65.83    1.905   1.905   1.905   1.905   1.905   1.905   1.905   1.905   1.905   1.905   1.905   1.905   1.905   1.905   1.905   1.905   1.905   1.905   1.905   1.905   1.905   1.905   1.905   1.905   1.905   1.905   1.905   1.905   1.905   1.905   1.905
    61.00    1.905   1.905   1.905   1.905   1.905   1.905   1.905   1.905   1.905   1.905   1.905   1.905   1.905   1.905   1.905   1.905   1.905   1.905   1.905   1.905   1.905   1.905   1.905   1.905   1.905   1.905   1.905   1.905   1.905   1.905   1.905
    56.17    1.905   1.905   1.905   1.905   1.905   1.905   1.905   1.905   1.905   1.905   1.905   1.905   1.905   1.905   1.905   1.905   1.905   1.905   1.905   1.905   1.905   1.905   1.905   1.905   1.905   1.905   1.905   1.905   1.905   1.905   1.905
    51.33    1.905   1.905   1.905   1.905   1.905   1.905   1.905   1.905   1.905   1.905   1.905   1.905   1.905   1.905   1.905   1.905   1.905   1.905   1.905   1.905   1.905   1.905   1.905   1.905   1.905   1.905   1.905   1.905   1.905   1.905   1.905
    46.50    1.905   1.905   1.905   1.905   1.905   1.905   1.905   1.905   1.905   1.905   1.905   1.905   1.905   1.905   1.905   1.905   1.905   1.905   1.905   1.905   1.905   1.905   1.905   1.905   1.905   1.905   1.905   1.905   1.905   1.905   1.905
    41.67    1.905   1.905   1.905   1.905   1.905   1.905   1.905   1.905   1.905   1.905   1.905   1.905   1.905   1.905   1.905   1.905   1.905   1.905   1.905   1.905   1.905   1.905   1.905   1.905   1.905   1.905   1.905   1.905   1.905   1.905   1.905
    36.83    1.905   1.905   1.905   1.905   1.905   1.905   1.905   1.905   1.905   1.905   1.905   1.905   1.905   1.905   1.905   1.905   1.905   1.905   1.905   1.905   1.905   1.905   1.905   1.905   1.905   1.905   1.905   1.905   1.905   1.905   1.905
    32.00    1.905   1.905   1.905   1.905   1.905   1.905   1.905   1.905   1.905   1.905   1.905   1.905   1.905   1.905   1.905   1.905   1.905   1.905   1.905   1.905   1.905   1.905   1.905   1.905   1.905   1.905   1.905   1.905   1.905   1.905   1.905
    27.17    1.905   1.905   1.905   1.905   1.905   1.905   1.905   1.905   1.905   1.905   1.905   1.905   1.905   1.905   1.905   1.905   1.905   1.905   1.905   1.905   1.905   1.905   1.905   1.905   1.905   1.905   1.905   1.905   1.905   1.905   1.905
    22.33    1.905   1.905   1.905   1.905   1.905   1.905   1.905   1.905   1.905   1.905   1.905   1.905   1.905   1.905   1.905   1.905   1.905   1.905   1.905   1.905   1.905   1.905   1.905   1.905   1.905   1.905   1.905   1.905   1.905   1.905   1.905
    17.50    1.905   1.905   1.905   1.905   1.905   1.905   1.905   1.905   1.905   1.905   1.905   1.905   1.905   1.905   1.905   1.905   1.905   1.905   1.905   1.905   1.905   1.905   1.905   1.905   1.905   1.905   1.905   1.905   1.905   1.905   1.905

   Mean standard deviation across all grid points:
      u component:    1.812 m/s
      v component:    1.905 m/s
      w component:    1.905 m/s


U-component (X) statistics from the hub grid point:

   Mean =  14.0000 m/s
   TI   =  12.4003 %

Nyquist frequency of turbulent wind field =        10.000 Hz


Processing complete.  205.17 CPU seconds used.
